<?xml version="1.0" encoding="UTF-8"?>

<!-- generated on 2025-02-06 16:20:00 by Eclipse SUMO netedit Version 1.19.0
<configuration xmlns:xsi="http://www.w3.org/2001/XMLSchema-instance" xsi:noNamespaceSchemaLocation="http://sumo.dlr.de/xsd/neteditConfiguration.xsd">

    <input>
        <sumocfg-file value="C:\Program Files (x86)\Eclipse\Sumo\kito\data\crossroads_trafficLight.sumocfg"/>
        <sumo-net-file value="C:\Program Files (x86)\Eclipse\Sumo\kito\data\crossroads_trafficLight.net.xml"/>
    </input>

    <output>
        <output-file value="C:\Program Files (x86)\Eclipse\Sumo\kito\data\crossroads_trafficLight.net.xml"/>
    </output>

    <processing>
        <geometry.min-radius.fix.railways value="false"/>
        <geometry.max-grade.fix value="false"/>
        <offset.disable-normalization value="true"/>
        <lefthand value="0"/>
    </processing>

    <junctions>
        <no-turnarounds value="true"/>
        <junctions.corner-detail value="5"/>
        <junctions.limit-turn-speed value="5.50"/>
        <rectangular-lane-cut value="0"/>
    </junctions>

    <pedestrian>
        <walkingareas value="0"/>
    </pedestrian>

</configuration>
-->

<net version="1.16" junctionCornerDetail="5" limitTurnSpeed="5.50" xmlns:xsi="http://www.w3.org/2001/XMLSchema-instance" xsi:noNamespaceSchemaLocation="http://sumo.dlr.de/xsd/net_file.xsd">

    <location netOffset="0.00,0.00" convBoundary="-100.00,100.00,100.00,300.00" origBoundary="-10000000000.00,-10000000000.00,10000000000.00,10000000000.00" projParameter="!"/>

    <edge id=":gneJ4_0" function="internal">
        <lane id=":gneJ4_0_0" index="0" speed="6.51" length="9.03" shape="-1.60,207.20 -1.95,204.75 -3.00,203.00 -4.75,201.95 -7.20,201.60"/>
    </edge>
    <edge id=":gneJ4_1" function="internal">
        <lane id=":gneJ4_1_0" index="0" speed="13.89" length="14.40" shape="-1.60,207.20 -1.60,192.80"/>
    </edge>
    <edge id=":gneJ4_2" function="internal">
        <lane id=":gneJ4_2_0" index="0" speed="8.00" length="4.07" shape="-1.60,207.20 -1.05,203.35 -0.96,203.20"/>
    </edge>
    <edge id=":gneJ4_12" function="internal">
        <lane id=":gneJ4_12_0" index="0" speed="8.00" length="10.13" shape="-0.96,203.20 0.60,200.60 3.35,198.95 7.20,198.40"/>
    </edge>
    <edge id=":gneJ4_3" function="internal">
        <lane id=":gneJ4_3_0" index="0" speed="6.51" length="9.03" shape="7.20,201.60 4.75,201.95 3.00,203.00 1.95,204.75 1.60,207.20"/>
    </edge>
    <edge id=":gneJ4_4" function="internal">
        <lane id=":gneJ4_4_0" index="0" speed="13.89" length="14.40" shape="7.20,201.60 -7.20,201.60"/>
    </edge>
    <edge id=":gneJ4_5" function="internal">
        <lane id=":gneJ4_5_0" index="0" speed="8.00" length="4.07" shape="7.20,201.60 3.35,201.05 3.20,200.96"/>
    </edge>
    <edge id=":gneJ4_13" function="internal">
        <lane id=":gneJ4_13_0" index="0" speed="8.00" length="10.13" shape="3.20,200.96 0.60,199.40 -1.05,196.65 -1.60,192.80"/>
    </edge>
    <edge id=":gneJ4_6" function="internal">
        <lane id=":gneJ4_6_0" index="0" speed="6.51" length="9.03" shape="1.60,192.80 1.95,195.25 3.00,197.00 4.75,198.05 7.20,198.40"/>
    </edge>
    <edge id=":gneJ4_7" function="internal">
        <lane id=":gneJ4_7_0" index="0" speed="13.89" length="14.40" shape="1.60,192.80 1.60,207.20"/>
    </edge>
    <edge id=":gneJ4_8" function="internal">
        <lane id=":gneJ4_8_0" index="0" speed="8.00" length="4.07" shape="1.60,192.80 1.05,196.65 0.96,196.80"/>
    </edge>
    <edge id=":gneJ4_14" function="internal">
        <lane id=":gneJ4_14_0" index="0" speed="8.00" length="10.13" shape="0.96,196.80 -0.60,199.40 -3.35,201.05 -7.20,201.60"/>
    </edge>
    <edge id=":gneJ4_9" function="internal">
        <lane id=":gneJ4_9_0" index="0" speed="6.51" length="9.03" shape="-7.20,198.40 -4.75,198.05 -3.00,197.00 -1.95,195.25 -1.60,192.80"/>
    </edge>
    <edge id=":gneJ4_10" function="internal">
        <lane id=":gneJ4_10_0" index="0" speed="13.89" length="14.40" shape="-7.20,198.40 7.20,198.40"/>
    </edge>
    <edge id=":gneJ4_11" function="internal">
        <lane id=":gneJ4_11_0" index="0" speed="8.00" length="4.07" shape="-7.20,198.40 -3.35,198.95 -3.20,199.04"/>
    </edge>
    <edge id=":gneJ4_15" function="internal">
        <lane id=":gneJ4_15_0" index="0" speed="8.00" length="10.13" shape="-3.20,199.04 -0.60,200.60 1.05,203.35 1.60,207.20"/>
    </edge>

    <edge id="-gneE17" from="gneJ4" to="gneJ12" priority="-1">
        <lane id="-gneE17_0" index="0" speed="13.89" length="92.80" shape="-7.20,201.60 -100.00,201.60"/>
    </edge>
    <edge id="-gneE4" from="gneJ4" to="gneJ0" priority="-1">
        <lane id="-gneE4_0" index="0" speed="13.89" length="92.80" shape="-1.60,192.80 -1.60,100.00"/>
    </edge>
    <edge id="-gneE5" from="gneJ5" to="gneJ4" priority="-1">
        <lane id="-gneE5_0" index="0" speed="13.89" length="92.80" shape="100.00,201.60 7.20,201.60"/>
    </edge>
    <edge id="-gneE56" from="gneJ41" to="gneJ4" priority="-1">
        <lane id="-gneE56_0" index="0" speed="13.89" length="92.80" shape="-1.60,300.00 -1.60,207.20"/>
    </edge>
    <edge id="gneE17" from="gneJ12" to="gneJ4" priority="-1">
        <lane id="gneE17_0" index="0" speed="13.89" length="92.80" shape="-100.00,198.40 -7.20,198.40"/>
    </edge>
    <edge id="gneE4" from="gneJ0" to="gneJ4" priority="-1">
        <lane id="gneE4_0" index="0" speed="13.89" length="92.80" shape="1.60,100.00 1.60,192.80"/>
    </edge>
    <edge id="gneE5" from="gneJ4" to="gneJ5" priority="-1">
        <lane id="gneE5_0" index="0" speed="13.89" length="92.80" shape="7.20,198.40 100.00,198.40"/>
    </edge>
    <edge id="gneE56" from="gneJ4" to="gneJ41" priority="-1">
        <lane id="gneE56_0" index="0" speed="13.89" length="92.80" shape="1.60,207.20 1.60,300.00"/>
    </edge>

    <tlLogic id="gneJ4" type="static" programID="0" offset="0">
        <phase duration="42" state="GGgrrrGGgrrr"/>
        <phase duration="3"  state="yyyrrryyyrrr"/>
        <phase duration="42" state="rrrGGgrrrGGg"/>
        <phase duration="3"  state="rrryyyrrryyy"/>
    </tlLogic>

    <junction id="gneJ0" type="dead_end" x="0.00" y="100.00" incLanes="-gneE4_0" intLanes="" shape="0.00,100.00 -3.20,100.00 0.00,100.00"/>
    <junction id="gneJ12" type="dead_end" x="-100.00" y="200.00" incLanes="-gneE17_0" intLanes="" shape="-100.00,200.00 -100.00,203.20 -100.00,200.00"/>
    <junction id="gneJ4" type="traffic_light" x="0.00" y="200.00" incLanes="-gneE56_0 -gneE5_0 gneE4_0 gneE17_0" intLanes=":gneJ4_0_0 :gneJ4_1_0 :gneJ4_12_0 :gneJ4_3_0 :gneJ4_4_0 :gneJ4_13_0 :gneJ4_6_0 :gneJ4_7_0 :gneJ4_14_0 :gneJ4_9_0 :gneJ4_10_0 :gneJ4_15_0" shape="-3.20,207.20 3.20,207.20 3.64,204.98 4.20,204.20 4.98,203.64 5.98,203.31 7.20,203.20 7.20,196.80 4.98,196.36 4.20,195.80 3.64,195.02 3.31,194.02 3.20,192.80 -3.20,192.80 -3.64,195.02 -4.20,195.80 -4.98,196.36 -5.98,196.69 -7.20,196.80 -7.20,203.20 -4.98,203.64 -4.20,204.20 -3.64,204.98 -3.31,205.98">
        <request index="0"  response="000000000000" foes="000100010000" cont="0"/>
        <request index="1"  response="100000100000" foes="111100110000" cont="0"/>
        <request index="2"  response="100111100000" foes="110111110000" cont="1"/>
        <request index="3"  response="000010000000" foes="100010000000" cont="0"/>
        <request index="4"  response="000110000111" foes="100110000111" cont="0"/>
        <request index="5"  response="111110000110" foes="111110000110" cont="1"/>
        <request index="6"  response="000000000000" foes="010000000100" cont="0"/>
        <request index="7"  response="100000100000" foes="110000111100" cont="0"/>
        <request index="8"  response="100000100011" foes="110000110111" cont="1"/>
        <request index="9"  response="000000000010" foes="000000100010" cont="0"/>
        <request index="10" response="000111000110" foes="000111100110" cont="0"/>
        <request index="11" response="000110011110" foes="000110111110" cont="1"/>
    </junction>
    <junction id="gneJ41" type="dead_end" x="0.00" y="300.00" incLanes="gneE56_0" intLanes="" shape="0.00,300.00 3.20,300.00 0.00,300.00"/>
    <junction id="gneJ5" type="dead_end" x="100.00" y="200.00" incLanes="gneE5_0" intLanes="" shape="100.00,200.00 100.00,196.80 100.00,200.00"/>

    <junction id=":gneJ4_12_0" type="internal" x="-0.96" y="203.20" incLanes=":gneJ4_2_0 gneE4_0" intLanes=":gneJ4_4_0 :gneJ4_5_0 :gneJ4_6_0 :gneJ4_7_0 :gneJ4_10_0 :gneJ4_11_0"/>
    <junction id=":gneJ4_13_0" type="internal" x="3.20" y="200.96" incLanes=":gneJ4_5_0 gneE17_0" intLanes=":gneJ4_1_0 :gneJ4_2_0 :gneJ4_7_0 :gneJ4_8_0 :gneJ4_9_0 :gneJ4_10_0"/>
    <junction id=":gneJ4_14_0" type="internal" x="0.96" y="196.80" incLanes=":gneJ4_8_0 -gneE56_0" intLanes=":gneJ4_0_0 :gneJ4_1_0 :gneJ4_4_0 :gneJ4_5_0 :gneJ4_10_0 :gneJ4_11_0"/>
    <junction id=":gneJ4_15_0" type="internal" x="-3.20" y="199.04" incLanes=":gneJ4_11_0 -gneE5_0" intLanes=":gneJ4_1_0 :gneJ4_2_0 :gneJ4_3_0 :gneJ4_4_0 :gneJ4_7_0 :gneJ4_8_0"/>

    <connection from="-gneE5" to="gneE56" fromLane="0" toLane="0" via=":gneJ4_3_0" tl="gneJ4" linkIndex="3" dir="r" state="o"/>
    <connection from="-gneE5" to="-gneE17" fromLane="0" toLane="0" via=":gneJ4_4_0" tl="gneJ4" linkIndex="4" dir="s" state="o"/>
    <connection from="-gneE5" to="-gneE4" fromLane="0" toLane="0" via=":gneJ4_5_0" tl="gneJ4" linkIndex="5" dir="l" state="o"/>
    <connection from="-gneE56" to="-gneE17" fromLane="0" toLane="0" via=":gneJ4_0_0" tl="gneJ4" linkIndex="0" dir="r" state="O"/>
    <connection from="-gneE56" to="-gneE4" fromLane="0" toLane="0" via=":gneJ4_1_0" tl="gneJ4" linkIndex="1" dir="s" state="O"/>
    <connection from="-gneE56" to="gneE5" fromLane="0" toLane="0" via=":gneJ4_2_0" tl="gneJ4" linkIndex="2" dir="l" state="o"/>
    <connection from="gneE17" to="-gneE4" fromLane="0" toLane="0" via=":gneJ4_9_0" tl="gneJ4" linkIndex="9" dir="r" state="o"/>
    <connection from="gneE17" to="gneE5" fromLane="0" toLane="0" via=":gneJ4_10_0" tl="gneJ4" linkIndex="10" dir="s" state="o"/>
    <connection from="gneE17" to="gneE56" fromLane="0" toLane="0" via=":gneJ4_11_0" tl="gneJ4" linkIndex="11" dir="l" state="o"/>
    <connection from="gneE4" to="gneE5" fromLane="0" toLane="0" via=":gneJ4_6_0" tl="gneJ4" linkIndex="6" dir="r" state="O"/>
    <connection from="gneE4" to="gneE56" fromLane="0" toLane="0" via=":gneJ4_7_0" tl="gneJ4" linkIndex="7" dir="s" state="O"/>
    <connection from="gneE4" to="-gneE17" fromLane="0" toLane="0" via=":gneJ4_8_0" tl="gneJ4" linkIndex="8" dir="l" state="o"/>

    <connection from=":gneJ4_0" to="-gneE17" fromLane="0" toLane="0" dir="r" state="M"/>
    <connection from=":gneJ4_1" to="-gneE4" fromLane="0" toLane="0" dir="s" state="M"/>
    <connection from=":gneJ4_2" to="gneE5" fromLane="0" toLane="0" via=":gneJ4_12_0" dir="l" state="m"/>
    <connection from=":gneJ4_12" to="gneE5" fromLane="0" toLane="0" dir="l" state="M"/>
    <connection from=":gneJ4_3" to="gneE56" fromLane="0" toLane="0" dir="r" state="M"/>
    <connection from=":gneJ4_4" to="-gneE17" fromLane="0" toLane="0" dir="s" state="M"/>
    <connection from=":gneJ4_5" to="-gneE4" fromLane="0" toLane="0" via=":gneJ4_13_0" dir="l" state="m"/>
    <connection from=":gneJ4_13" to="-gneE4" fromLane="0" toLane="0" dir="l" state="M"/>
    <connection from=":gneJ4_6" to="gneE5" fromLane="0" toLane="0" dir="r" state="M"/>
    <connection from=":gneJ4_7" to="gneE56" fromLane="0" toLane="0" dir="s" state="M"/>
    <connection from=":gneJ4_8" to="-gneE17" fromLane="0" toLane="0" via=":gneJ4_14_0" dir="l" state="m"/>
    <connection from=":gneJ4_14" to="-gneE17" fromLane="0" toLane="0" dir="l" state="M"/>
    <connection from=":gneJ4_9" to="-gneE4" fromLane="0" toLane="0" dir="r" state="M"/>
    <connection from=":gneJ4_10" to="gneE5" fromLane="0" toLane="0" dir="s" state="M"/>
    <connection from=":gneJ4_11" to="gneE56" fromLane="0" toLane="0" via=":gneJ4_15_0" dir="l" state="m"/>
    <connection from=":gneJ4_15" to="gneE56" fromLane="0" toLane="0" dir="l" state="M"/>

</net>
