<?xml version="1.0" encoding="UTF-8"?>

<!-- generated on 2025-10-06 15:46:19 by Eclipse SUMO netedit Version 1.22.0
<neteditConfiguration xmlns:xsi="http://www.w3.org/2001/XMLSchema-instance" xsi:noNamespaceSchemaLocation="http://sumo.dlr.de/xsd/neteditConfiguration.xsd">

    <input>
        <sumo-net-file value="C:\Users\taiyo\laboratory\data\3intersections_trafficlights.net.xml"/>
    </input>

    <output>
        <output-file value="C:\Users\taiyo\laboratory\data\3intersections_trafficlights.net.xml"/>
    </output>

    <processing>
        <geometry.min-radius.fix.railways value="false"/>
        <geometry.max-grade.fix value="false"/>
        <offset.disable-normalization value="true"/>
        <lefthand value="0"/>
    </processing>

    <junctions>
        <no-turnarounds value="true"/>
        <junctions.corner-detail value="5"/>
        <junctions.limit-turn-speed value="5.50"/>
        <rectangular-lane-cut value="0"/>
    </junctions>

    <pedestrian>
        <walkingareas value="0"/>
    </pedestrian>

</neteditConfiguration>
-->

<net version="1.20" junctionCornerDetail="5" limitTurnSpeed="5.50" xmlns:xsi="http://www.w3.org/2001/XMLSchema-instance" xsi:noNamespaceSchemaLocation="http://sumo.dlr.de/xsd/net_file.xsd">

    <location netOffset="0.00,0.00" convBoundary="-500.00,-250.00,500.00,250.00" origBoundary="-10000000000.00,-10000000000.00,10000000000.00,10000000000.00" projParameter="!"/>

    <edge id=":J1_0" function="internal">
        <lane id=":J1_0_0" index="0" speed="6.51" length="9.03" shape="-251.60,7.20 -251.95,4.75 -253.00,3.00 -254.75,1.95 -257.20,1.60"/>
    </edge>
    <edge id=":J1_1" function="internal">
        <lane id=":J1_1_0" index="0" speed="13.89" length="14.40" shape="-251.60,7.20 -251.60,-7.20"/>
    </edge>
    <edge id=":J1_2" function="internal">
        <lane id=":J1_2_0" index="0" speed="8.00" length="4.07" shape="-251.60,7.20 -251.05,3.35 -250.96,3.20"/>
    </edge>
    <edge id=":J1_12" function="internal">
        <lane id=":J1_12_0" index="0" speed="8.00" length="10.13" shape="-250.96,3.20 -249.40,0.60 -246.65,-1.05 -242.80,-1.60"/>
    </edge>
    <edge id=":J1_3" function="internal">
        <lane id=":J1_3_0" index="0" speed="6.51" length="9.03" shape="-242.80,1.60 -245.25,1.95 -247.00,3.00 -248.05,4.75 -248.40,7.20"/>
    </edge>
    <edge id=":J1_4" function="internal">
        <lane id=":J1_4_0" index="0" speed="13.89" length="14.40" shape="-242.80,1.60 -257.20,1.60"/>
    </edge>
    <edge id=":J1_5" function="internal">
        <lane id=":J1_5_0" index="0" speed="8.00" length="4.07" shape="-242.80,1.60 -246.65,1.05 -246.80,0.96"/>
    </edge>
    <edge id=":J1_13" function="internal">
        <lane id=":J1_13_0" index="0" speed="8.00" length="10.13" shape="-246.80,0.96 -249.40,-0.60 -251.05,-3.35 -251.60,-7.20"/>
    </edge>
    <edge id=":J1_6" function="internal">
        <lane id=":J1_6_0" index="0" speed="6.51" length="9.03" shape="-248.40,-7.20 -248.05,-4.75 -247.00,-3.00 -245.25,-1.95 -242.80,-1.60"/>
    </edge>
    <edge id=":J1_7" function="internal">
        <lane id=":J1_7_0" index="0" speed="13.89" length="14.40" shape="-248.40,-7.20 -248.40,7.20"/>
    </edge>
    <edge id=":J1_8" function="internal">
        <lane id=":J1_8_0" index="0" speed="8.00" length="4.07" shape="-248.40,-7.20 -248.95,-3.35 -249.04,-3.20"/>
    </edge>
    <edge id=":J1_14" function="internal">
        <lane id=":J1_14_0" index="0" speed="8.00" length="10.13" shape="-249.04,-3.20 -250.60,-0.60 -253.35,1.05 -257.20,1.60"/>
    </edge>
    <edge id=":J1_9" function="internal">
        <lane id=":J1_9_0" index="0" speed="6.51" length="9.03" shape="-257.20,-1.60 -254.75,-1.95 -253.00,-3.00 -251.95,-4.75 -251.60,-7.20"/>
    </edge>
    <edge id=":J1_10" function="internal">
        <lane id=":J1_10_0" index="0" speed="13.89" length="14.40" shape="-257.20,-1.60 -242.80,-1.60"/>
    </edge>
    <edge id=":J1_11" function="internal">
        <lane id=":J1_11_0" index="0" speed="8.00" length="4.07" shape="-257.20,-1.60 -253.35,-1.05 -253.20,-0.96"/>
    </edge>
    <edge id=":J1_15" function="internal">
        <lane id=":J1_15_0" index="0" speed="8.00" length="10.13" shape="-253.20,-0.96 -250.60,0.60 -248.95,3.35 -248.40,7.20"/>
    </edge>
    <edge id=":J4_0" function="internal">
        <lane id=":J4_0_0" index="0" speed="6.51" length="9.03" shape="-1.60,7.20 -1.95,4.75 -3.00,3.00 -4.75,1.95 -7.20,1.60"/>
    </edge>
    <edge id=":J4_1" function="internal">
        <lane id=":J4_1_0" index="0" speed="13.89" length="14.40" shape="-1.60,7.20 -1.60,-7.20"/>
    </edge>
    <edge id=":J4_2" function="internal">
        <lane id=":J4_2_0" index="0" speed="8.00" length="4.07" shape="-1.60,7.20 -1.05,3.35 -0.96,3.20"/>
    </edge>
    <edge id=":J4_12" function="internal">
        <lane id=":J4_12_0" index="0" speed="8.00" length="10.13" shape="-0.96,3.20 0.60,0.60 3.35,-1.05 7.20,-1.60"/>
    </edge>
    <edge id=":J4_3" function="internal">
        <lane id=":J4_3_0" index="0" speed="6.51" length="9.03" shape="7.20,1.60 4.75,1.95 3.00,3.00 1.95,4.75 1.60,7.20"/>
    </edge>
    <edge id=":J4_4" function="internal">
        <lane id=":J4_4_0" index="0" speed="13.89" length="14.40" shape="7.20,1.60 -7.20,1.60"/>
    </edge>
    <edge id=":J4_5" function="internal">
        <lane id=":J4_5_0" index="0" speed="8.00" length="4.07" shape="7.20,1.60 3.35,1.05 3.20,0.96"/>
    </edge>
    <edge id=":J4_13" function="internal">
        <lane id=":J4_13_0" index="0" speed="8.00" length="10.13" shape="3.20,0.96 0.60,-0.60 -1.05,-3.35 -1.60,-7.20"/>
    </edge>
    <edge id=":J4_6" function="internal">
        <lane id=":J4_6_0" index="0" speed="6.51" length="9.03" shape="1.60,-7.20 1.95,-4.75 3.00,-3.00 4.75,-1.95 7.20,-1.60"/>
    </edge>
    <edge id=":J4_7" function="internal">
        <lane id=":J4_7_0" index="0" speed="13.89" length="14.40" shape="1.60,-7.20 1.60,7.20"/>
    </edge>
    <edge id=":J4_8" function="internal">
        <lane id=":J4_8_0" index="0" speed="8.00" length="4.07" shape="1.60,-7.20 1.05,-3.35 0.96,-3.20"/>
    </edge>
    <edge id=":J4_14" function="internal">
        <lane id=":J4_14_0" index="0" speed="8.00" length="10.13" shape="0.96,-3.20 -0.60,-0.60 -3.35,1.05 -7.20,1.60"/>
    </edge>
    <edge id=":J4_9" function="internal">
        <lane id=":J4_9_0" index="0" speed="6.51" length="9.03" shape="-7.20,-1.60 -4.75,-1.95 -3.00,-3.00 -1.95,-4.75 -1.60,-7.20"/>
    </edge>
    <edge id=":J4_10" function="internal">
        <lane id=":J4_10_0" index="0" speed="13.89" length="14.40" shape="-7.20,-1.60 7.20,-1.60"/>
    </edge>
    <edge id=":J4_11" function="internal">
        <lane id=":J4_11_0" index="0" speed="8.00" length="4.07" shape="-7.20,-1.60 -3.35,-1.05 -3.20,-0.96"/>
    </edge>
    <edge id=":J4_15" function="internal">
        <lane id=":J4_15_0" index="0" speed="8.00" length="10.13" shape="-3.20,-0.96 -0.60,0.60 1.05,3.35 1.60,7.20"/>
    </edge>
    <edge id=":J7_0" function="internal">
        <lane id=":J7_0_0" index="0" speed="6.51" length="9.03" shape="248.40,7.20 248.05,4.75 247.00,3.00 245.25,1.95 242.80,1.60"/>
    </edge>
    <edge id=":J7_1" function="internal">
        <lane id=":J7_1_0" index="0" speed="13.89" length="14.40" shape="248.40,7.20 248.40,-7.20"/>
    </edge>
    <edge id=":J7_2" function="internal">
        <lane id=":J7_2_0" index="0" speed="8.00" length="4.07" shape="248.40,7.20 248.95,3.35 249.04,3.20"/>
    </edge>
    <edge id=":J7_12" function="internal">
        <lane id=":J7_12_0" index="0" speed="8.00" length="10.13" shape="249.04,3.20 250.60,0.60 253.35,-1.05 257.20,-1.60"/>
    </edge>
    <edge id=":J7_3" function="internal">
        <lane id=":J7_3_0" index="0" speed="6.51" length="9.03" shape="257.20,1.60 254.75,1.95 253.00,3.00 251.95,4.75 251.60,7.20"/>
    </edge>
    <edge id=":J7_4" function="internal">
        <lane id=":J7_4_0" index="0" speed="13.89" length="14.40" shape="257.20,1.60 242.80,1.60"/>
    </edge>
    <edge id=":J7_5" function="internal">
        <lane id=":J7_5_0" index="0" speed="8.00" length="4.07" shape="257.20,1.60 253.35,1.05 253.20,0.96"/>
    </edge>
    <edge id=":J7_13" function="internal">
        <lane id=":J7_13_0" index="0" speed="8.00" length="10.13" shape="253.20,0.96 250.60,-0.60 248.95,-3.35 248.40,-7.20"/>
    </edge>
    <edge id=":J7_6" function="internal">
        <lane id=":J7_6_0" index="0" speed="6.51" length="9.03" shape="251.60,-7.20 251.95,-4.75 253.00,-3.00 254.75,-1.95 257.20,-1.60"/>
    </edge>
    <edge id=":J7_7" function="internal">
        <lane id=":J7_7_0" index="0" speed="13.89" length="14.40" shape="251.60,-7.20 251.60,7.20"/>
    </edge>
    <edge id=":J7_8" function="internal">
        <lane id=":J7_8_0" index="0" speed="8.00" length="4.07" shape="251.60,-7.20 251.05,-3.35 250.96,-3.20"/>
    </edge>
    <edge id=":J7_14" function="internal">
        <lane id=":J7_14_0" index="0" speed="8.00" length="10.13" shape="250.96,-3.20 249.40,-0.60 246.65,1.05 242.80,1.60"/>
    </edge>
    <edge id=":J7_9" function="internal">
        <lane id=":J7_9_0" index="0" speed="6.51" length="9.03" shape="242.80,-1.60 245.25,-1.95 247.00,-3.00 248.05,-4.75 248.40,-7.20"/>
    </edge>
    <edge id=":J7_10" function="internal">
        <lane id=":J7_10_0" index="0" speed="13.89" length="14.40" shape="242.80,-1.60 257.20,-1.60"/>
    </edge>
    <edge id=":J7_11" function="internal">
        <lane id=":J7_11_0" index="0" speed="8.00" length="4.07" shape="242.80,-1.60 246.65,-1.05 246.80,-0.96"/>
    </edge>
    <edge id=":J7_15" function="internal">
        <lane id=":J7_15_0" index="0" speed="8.00" length="10.13" shape="246.80,-0.96 249.40,0.60 251.05,3.35 251.60,7.20"/>
    </edge>

    <edge id="-E0" from="J1" to="J0" priority="-1">
        <lane id="-E0_0" index="0" speed="13.89" length="242.80" shape="-257.20,1.60 -500.00,1.60"/>
    </edge>
    <edge id="-E1" from="J2" to="J1" priority="-1">
        <lane id="-E1_0" index="0" speed="13.89" length="242.80" shape="-251.60,250.00 -251.60,7.20"/>
    </edge>
    <edge id="-E2" from="J3" to="J1" priority="-1">
        <lane id="-E2_0" index="0" speed="13.89" length="242.80" shape="-248.40,-250.00 -248.40,-7.20"/>
    </edge>
    <edge id="-E3" from="J4" to="J1" priority="-1">
        <lane id="-E3_0" index="0" speed="13.89" length="235.60" shape="-7.20,1.60 -242.80,1.60"/>
    </edge>
    <edge id="-E4" from="J5" to="J4" priority="-1">
        <lane id="-E4_0" index="0" speed="13.89" length="242.80" shape="-1.60,250.00 -1.60,7.20"/>
    </edge>
    <edge id="-E5" from="J6" to="J4" priority="-1">
        <lane id="-E5_0" index="0" speed="13.89" length="242.80" shape="1.60,-250.00 1.60,-7.20"/>
    </edge>
    <edge id="-E6" from="J7" to="J4" priority="-1">
        <lane id="-E6_0" index="0" speed="13.89" length="235.60" shape="242.80,1.60 7.20,1.60"/>
    </edge>
    <edge id="-E7" from="J8" to="J7" priority="-1">
        <lane id="-E7_0" index="0" speed="13.89" length="242.80" shape="248.40,250.00 248.40,7.20"/>
    </edge>
    <edge id="-E8" from="J9" to="J7" priority="-1">
        <lane id="-E8_0" index="0" speed="13.89" length="242.80" shape="251.60,-250.00 251.60,-7.20"/>
    </edge>
    <edge id="-E9" from="J10" to="J7" priority="-1">
        <lane id="-E9_0" index="0" speed="13.89" length="242.80" shape="500.00,1.60 257.20,1.60"/>
    </edge>
    <edge id="E0" from="J0" to="J1" priority="-1">
        <lane id="E0_0" index="0" speed="13.89" length="242.80" shape="-500.00,-1.60 -257.20,-1.60"/>
    </edge>
    <edge id="E1" from="J1" to="J2" priority="-1">
        <lane id="E1_0" index="0" speed="13.89" length="242.80" shape="-248.40,7.20 -248.40,250.00"/>
    </edge>
    <edge id="E2" from="J1" to="J3" priority="-1">
        <lane id="E2_0" index="0" speed="13.89" length="242.80" shape="-251.60,-7.20 -251.60,-250.00"/>
    </edge>
    <edge id="E3" from="J1" to="J4" priority="-1">
        <lane id="E3_0" index="0" speed="13.89" length="235.60" shape="-242.80,-1.60 -7.20,-1.60"/>
    </edge>
    <edge id="E4" from="J4" to="J5" priority="-1">
        <lane id="E4_0" index="0" speed="13.89" length="242.80" shape="1.60,7.20 1.60,250.00"/>
    </edge>
    <edge id="E5" from="J4" to="J6" priority="-1">
        <lane id="E5_0" index="0" speed="13.89" length="242.80" shape="-1.60,-7.20 -1.60,-250.00"/>
    </edge>
    <edge id="E6" from="J4" to="J7" priority="-1">
        <lane id="E6_0" index="0" speed="13.89" length="235.60" shape="7.20,-1.60 242.80,-1.60"/>
    </edge>
    <edge id="E7" from="J7" to="J8" priority="-1">
        <lane id="E7_0" index="0" speed="13.89" length="242.80" shape="251.60,7.20 251.60,250.00"/>
    </edge>
    <edge id="E8" from="J7" to="J9" priority="-1">
        <lane id="E8_0" index="0" speed="13.89" length="242.80" shape="248.40,-7.20 248.40,-250.00"/>
    </edge>
    <edge id="E9" from="J7" to="J10" priority="-1">
        <lane id="E9_0" index="0" speed="13.89" length="242.80" shape="257.20,-1.60 500.00,-1.60"/>
    </edge>

    <tlLogic id="J1" type="static" programID="0" offset="0">
        <phase duration="42" state="GGgrrrGGgrrr"/>
        <phase duration="3"  state="yyyrrryyyrrr"/>
        <phase duration="42" state="rrrGGgrrrGGg"/>
        <phase duration="3"  state="rrryyyrrryyy"/>
    </tlLogic>
    <tlLogic id="J1" type="static" programID="1" offset="0">
        <phase duration="42" state="GGgrrrGGgrrr"/>
        <phase duration="3"  state="yyyrrryyyrrr"/>
        <phase duration="42" state="rrrGGgrrrGGg"/>
        <phase duration="3"  state="rrryyyrrryyy"/>
    </tlLogic>
    <tlLogic id="J4" type="static" programID="0" offset="0">
        <phase duration="42" state="GGgrrrGGgrrr"/>
        <phase duration="3"  state="yyyrrryyyrrr"/>
        <phase duration="42" state="rrrGGgrrrGGg"/>
        <phase duration="3"  state="rrryyyrrryyy"/>
    </tlLogic>
    <tlLogic id="J7" type="static" programID="0" offset="0">
        <phase duration="42" state="GGgrrrGGgrrr"/>
        <phase duration="3"  state="yyyrrryyyrrr"/>
        <phase duration="42" state="rrrGGgrrrGGg"/>
        <phase duration="3"  state="rrryyyrrryyy"/>
    </tlLogic>

    <junction id="J0" type="dead_end" x="-500.00" y="0.00" incLanes="-E0_0" intLanes="" shape="-500.00,0.00 -500.00,3.20 -500.00,0.00"/>
    <junction id="J1" type="traffic_light" x="-250.00" y="0.00" incLanes="-E1_0 -E3_0 -E2_0 E0_0" intLanes=":J1_0_0 :J1_1_0 :J1_12_0 :J1_3_0 :J1_4_0 :J1_13_0 :J1_6_0 :J1_7_0 :J1_14_0 :J1_9_0 :J1_10_0 :J1_15_0" shape="-253.20,7.20 -246.80,7.20 -246.36,4.98 -245.80,4.20 -245.02,3.64 -244.02,3.31 -242.80,3.20 -242.80,-3.20 -245.02,-3.64 -245.80,-4.20 -246.36,-4.98 -246.69,-5.98 -246.80,-7.20 -253.20,-7.20 -253.64,-4.98 -254.20,-4.20 -254.98,-3.64 -255.98,-3.31 -257.20,-3.20 -257.20,3.20 -254.98,3.64 -254.20,4.20 -253.64,4.98 -253.31,5.98">
        <request index="0"  response="000000000000" foes="000100010000" cont="0"/>
        <request index="1"  response="100000100000" foes="111100110000" cont="0"/>
        <request index="2"  response="100111100000" foes="110111110000" cont="1"/>
        <request index="3"  response="000010000000" foes="100010000000" cont="0"/>
        <request index="4"  response="000110000111" foes="100110000111" cont="0"/>
        <request index="5"  response="111110000110" foes="111110000110" cont="1"/>
        <request index="6"  response="000000000000" foes="010000000100" cont="0"/>
        <request index="7"  response="100000100000" foes="110000111100" cont="0"/>
        <request index="8"  response="100000100011" foes="110000110111" cont="1"/>
        <request index="9"  response="000000000010" foes="000000100010" cont="0"/>
        <request index="10" response="000111000110" foes="000111100110" cont="0"/>
        <request index="11" response="000110011110" foes="000110111110" cont="1"/>
    </junction>
    <junction id="J10" type="dead_end" x="500.00" y="0.00" incLanes="E9_0" intLanes="" shape="500.00,0.00 500.00,-3.20 500.00,0.00"/>
    <junction id="J2" type="dead_end" x="-250.00" y="250.00" incLanes="E1_0" intLanes="" shape="-250.00,250.00 -246.80,250.00 -250.00,250.00"/>
    <junction id="J3" type="dead_end" x="-250.00" y="-250.00" incLanes="E2_0" intLanes="" shape="-250.00,-250.00 -253.20,-250.00 -250.00,-250.00"/>
    <junction id="J4" type="traffic_light" x="0.00" y="0.00" incLanes="-E4_0 -E6_0 -E5_0 E3_0" intLanes=":J4_0_0 :J4_1_0 :J4_12_0 :J4_3_0 :J4_4_0 :J4_13_0 :J4_6_0 :J4_7_0 :J4_14_0 :J4_9_0 :J4_10_0 :J4_15_0" shape="-3.20,7.20 3.20,7.20 3.64,4.98 4.20,4.20 4.98,3.64 5.98,3.31 7.20,3.20 7.20,-3.20 4.98,-3.64 4.20,-4.20 3.64,-4.98 3.31,-5.98 3.20,-7.20 -3.20,-7.20 -3.64,-4.98 -4.20,-4.20 -4.98,-3.64 -5.98,-3.31 -7.20,-3.20 -7.20,3.20 -4.98,3.64 -4.20,4.20 -3.64,4.98 -3.31,5.98">
        <request index="0"  response="000000000000" foes="000100010000" cont="0"/>
        <request index="1"  response="100000100000" foes="111100110000" cont="0"/>
        <request index="2"  response="100111100000" foes="110111110000" cont="1"/>
        <request index="3"  response="000010000000" foes="100010000000" cont="0"/>
        <request index="4"  response="000110000111" foes="100110000111" cont="0"/>
        <request index="5"  response="111110000110" foes="111110000110" cont="1"/>
        <request index="6"  response="000000000000" foes="010000000100" cont="0"/>
        <request index="7"  response="100000100000" foes="110000111100" cont="0"/>
        <request index="8"  response="100000100011" foes="110000110111" cont="1"/>
        <request index="9"  response="000000000010" foes="000000100010" cont="0"/>
        <request index="10" response="000111000110" foes="000111100110" cont="0"/>
        <request index="11" response="000110011110" foes="000110111110" cont="1"/>
    </junction>
    <junction id="J5" type="dead_end" x="0.00" y="250.00" incLanes="E4_0" intLanes="" shape="0.00,250.00 3.20,250.00 0.00,250.00"/>
    <junction id="J6" type="dead_end" x="0.00" y="-250.00" incLanes="E5_0" intLanes="" shape="0.00,-250.00 -3.20,-250.00 0.00,-250.00"/>
    <junction id="J7" type="traffic_light" x="250.00" y="0.00" incLanes="-E7_0 -E9_0 -E8_0 E6_0" intLanes=":J7_0_0 :J7_1_0 :J7_12_0 :J7_3_0 :J7_4_0 :J7_13_0 :J7_6_0 :J7_7_0 :J7_14_0 :J7_9_0 :J7_10_0 :J7_15_0" shape="246.80,7.20 253.20,7.20 253.64,4.98 254.20,4.20 254.98,3.64 255.98,3.31 257.20,3.20 257.20,-3.20 254.98,-3.64 254.20,-4.20 253.64,-4.98 253.31,-5.98 253.20,-7.20 246.80,-7.20 246.36,-4.98 245.80,-4.20 245.02,-3.64 244.02,-3.31 242.80,-3.20 242.80,3.20 245.02,3.64 245.80,4.20 246.36,4.98 246.69,5.98">
        <request index="0"  response="000000000000" foes="000100010000" cont="0"/>
        <request index="1"  response="100000100000" foes="111100110000" cont="0"/>
        <request index="2"  response="100111100000" foes="110111110000" cont="1"/>
        <request index="3"  response="000010000000" foes="100010000000" cont="0"/>
        <request index="4"  response="000110000111" foes="100110000111" cont="0"/>
        <request index="5"  response="111110000110" foes="111110000110" cont="1"/>
        <request index="6"  response="000000000000" foes="010000000100" cont="0"/>
        <request index="7"  response="100000100000" foes="110000111100" cont="0"/>
        <request index="8"  response="100000100011" foes="110000110111" cont="1"/>
        <request index="9"  response="000000000010" foes="000000100010" cont="0"/>
        <request index="10" response="000111000110" foes="000111100110" cont="0"/>
        <request index="11" response="000110011110" foes="000110111110" cont="1"/>
    </junction>
    <junction id="J8" type="dead_end" x="250.00" y="250.00" incLanes="E7_0" intLanes="" shape="250.00,250.00 253.20,250.00 250.00,250.00"/>
    <junction id="J9" type="dead_end" x="250.00" y="-250.00" incLanes="E8_0" intLanes="" shape="250.00,-250.00 246.80,-250.00 250.00,-250.00"/>

    <junction id=":J1_12_0" type="internal" x="-250.96" y="3.20" incLanes=":J1_2_0 -E2_0" intLanes=":J1_4_0 :J1_5_0 :J1_6_0 :J1_7_0 :J1_10_0 :J1_11_0"/>
    <junction id=":J1_13_0" type="internal" x="-246.80" y="0.96" incLanes=":J1_5_0 E0_0" intLanes=":J1_1_0 :J1_2_0 :J1_7_0 :J1_8_0 :J1_9_0 :J1_10_0"/>
    <junction id=":J1_14_0" type="internal" x="-249.04" y="-3.20" incLanes=":J1_8_0 -E1_0" intLanes=":J1_0_0 :J1_1_0 :J1_4_0 :J1_5_0 :J1_10_0 :J1_11_0"/>
    <junction id=":J1_15_0" type="internal" x="-253.20" y="-0.96" incLanes=":J1_11_0 -E3_0" intLanes=":J1_1_0 :J1_2_0 :J1_3_0 :J1_4_0 :J1_7_0 :J1_8_0"/>
    <junction id=":J4_12_0" type="internal" x="-0.96" y="3.20" incLanes=":J4_2_0 -E5_0" intLanes=":J4_4_0 :J4_5_0 :J4_6_0 :J4_7_0 :J4_10_0 :J4_11_0"/>
    <junction id=":J4_13_0" type="internal" x="3.20" y="0.96" incLanes=":J4_5_0 E3_0" intLanes=":J4_1_0 :J4_2_0 :J4_7_0 :J4_8_0 :J4_9_0 :J4_10_0"/>
    <junction id=":J4_14_0" type="internal" x="0.96" y="-3.20" incLanes=":J4_8_0 -E4_0" intLanes=":J4_0_0 :J4_1_0 :J4_4_0 :J4_5_0 :J4_10_0 :J4_11_0"/>
    <junction id=":J4_15_0" type="internal" x="-3.20" y="-0.96" incLanes=":J4_11_0 -E6_0" intLanes=":J4_1_0 :J4_2_0 :J4_3_0 :J4_4_0 :J4_7_0 :J4_8_0"/>
    <junction id=":J7_12_0" type="internal" x="249.04" y="3.20" incLanes=":J7_2_0 -E8_0" intLanes=":J7_4_0 :J7_5_0 :J7_6_0 :J7_7_0 :J7_10_0 :J7_11_0"/>
    <junction id=":J7_13_0" type="internal" x="253.20" y="0.96" incLanes=":J7_5_0 E6_0" intLanes=":J7_1_0 :J7_2_0 :J7_7_0 :J7_8_0 :J7_9_0 :J7_10_0"/>
    <junction id=":J7_14_0" type="internal" x="250.96" y="-3.20" incLanes=":J7_8_0 -E7_0" intLanes=":J7_0_0 :J7_1_0 :J7_4_0 :J7_5_0 :J7_10_0 :J7_11_0"/>
    <junction id=":J7_15_0" type="internal" x="246.80" y="-0.96" incLanes=":J7_11_0 -E9_0" intLanes=":J7_1_0 :J7_2_0 :J7_3_0 :J7_4_0 :J7_7_0 :J7_8_0"/>

    <connection from="-E1" to="-E0" fromLane="0" toLane="0" via=":J1_0_0" tl="J1" linkIndex="0" dir="r" state="O"/>
    <connection from="-E1" to="E2" fromLane="0" toLane="0" via=":J1_1_0" tl="J1" linkIndex="1" dir="s" state="O"/>
    <connection from="-E1" to="E3" fromLane="0" toLane="0" via=":J1_2_0" tl="J1" linkIndex="2" dir="l" state="o"/>
    <connection from="-E2" to="E3" fromLane="0" toLane="0" via=":J1_6_0" tl="J1" linkIndex="6" dir="r" state="O"/>
    <connection from="-E2" to="E1" fromLane="0" toLane="0" via=":J1_7_0" tl="J1" linkIndex="7" dir="s" state="O"/>
    <connection from="-E2" to="-E0" fromLane="0" toLane="0" via=":J1_8_0" tl="J1" linkIndex="8" dir="l" state="o"/>
    <connection from="-E3" to="E1" fromLane="0" toLane="0" via=":J1_3_0" tl="J1" linkIndex="3" dir="r" state="o"/>
    <connection from="-E3" to="-E0" fromLane="0" toLane="0" via=":J1_4_0" tl="J1" linkIndex="4" dir="s" state="o"/>
    <connection from="-E3" to="E2" fromLane="0" toLane="0" via=":J1_5_0" tl="J1" linkIndex="5" dir="l" state="o"/>
    <connection from="-E4" to="-E3" fromLane="0" toLane="0" via=":J4_0_0" tl="J4" linkIndex="0" dir="r" state="O"/>
    <connection from="-E4" to="E5" fromLane="0" toLane="0" via=":J4_1_0" tl="J4" linkIndex="1" dir="s" state="O"/>
    <connection from="-E4" to="E6" fromLane="0" toLane="0" via=":J4_2_0" tl="J4" linkIndex="2" dir="l" state="o"/>
    <connection from="-E5" to="E6" fromLane="0" toLane="0" via=":J4_6_0" tl="J4" linkIndex="6" dir="r" state="O"/>
    <connection from="-E5" to="E4" fromLane="0" toLane="0" via=":J4_7_0" tl="J4" linkIndex="7" dir="s" state="O"/>
    <connection from="-E5" to="-E3" fromLane="0" toLane="0" via=":J4_8_0" tl="J4" linkIndex="8" dir="l" state="o"/>
    <connection from="-E6" to="E4" fromLane="0" toLane="0" via=":J4_3_0" tl="J4" linkIndex="3" dir="r" state="o"/>
    <connection from="-E6" to="-E3" fromLane="0" toLane="0" via=":J4_4_0" tl="J4" linkIndex="4" dir="s" state="o"/>
    <connection from="-E6" to="E5" fromLane="0" toLane="0" via=":J4_5_0" tl="J4" linkIndex="5" dir="l" state="o"/>
    <connection from="-E7" to="-E6" fromLane="0" toLane="0" via=":J7_0_0" tl="J7" linkIndex="0" dir="r" state="O"/>
    <connection from="-E7" to="E8" fromLane="0" toLane="0" via=":J7_1_0" tl="J7" linkIndex="1" dir="s" state="O"/>
    <connection from="-E7" to="E9" fromLane="0" toLane="0" via=":J7_2_0" tl="J7" linkIndex="2" dir="l" state="o"/>
    <connection from="-E8" to="E9" fromLane="0" toLane="0" via=":J7_6_0" tl="J7" linkIndex="6" dir="r" state="O"/>
    <connection from="-E8" to="E7" fromLane="0" toLane="0" via=":J7_7_0" tl="J7" linkIndex="7" dir="s" state="O"/>
    <connection from="-E8" to="-E6" fromLane="0" toLane="0" via=":J7_8_0" tl="J7" linkIndex="8" dir="l" state="o"/>
    <connection from="-E9" to="E7" fromLane="0" toLane="0" via=":J7_3_0" tl="J7" linkIndex="3" dir="r" state="o"/>
    <connection from="-E9" to="-E6" fromLane="0" toLane="0" via=":J7_4_0" tl="J7" linkIndex="4" dir="s" state="o"/>
    <connection from="-E9" to="E8" fromLane="0" toLane="0" via=":J7_5_0" tl="J7" linkIndex="5" dir="l" state="o"/>
    <connection from="E0" to="E2" fromLane="0" toLane="0" via=":J1_9_0" tl="J1" linkIndex="9" dir="r" state="o"/>
    <connection from="E0" to="E3" fromLane="0" toLane="0" via=":J1_10_0" tl="J1" linkIndex="10" dir="s" state="o"/>
    <connection from="E0" to="E1" fromLane="0" toLane="0" via=":J1_11_0" tl="J1" linkIndex="11" dir="l" state="o"/>
    <connection from="E3" to="E5" fromLane="0" toLane="0" via=":J4_9_0" tl="J4" linkIndex="9" dir="r" state="o"/>
    <connection from="E3" to="E6" fromLane="0" toLane="0" via=":J4_10_0" tl="J4" linkIndex="10" dir="s" state="o"/>
    <connection from="E3" to="E4" fromLane="0" toLane="0" via=":J4_11_0" tl="J4" linkIndex="11" dir="l" state="o"/>
    <connection from="E6" to="E8" fromLane="0" toLane="0" via=":J7_9_0" tl="J7" linkIndex="9" dir="r" state="o"/>
    <connection from="E6" to="E9" fromLane="0" toLane="0" via=":J7_10_0" tl="J7" linkIndex="10" dir="s" state="o"/>
    <connection from="E6" to="E7" fromLane="0" toLane="0" via=":J7_11_0" tl="J7" linkIndex="11" dir="l" state="o"/>

    <connection from=":J1_0" to="-E0" fromLane="0" toLane="0" dir="r" state="M"/>
    <connection from=":J1_1" to="E2" fromLane="0" toLane="0" dir="s" state="M"/>
    <connection from=":J1_2" to="E3" fromLane="0" toLane="0" via=":J1_12_0" dir="l" state="m"/>
    <connection from=":J1_12" to="E3" fromLane="0" toLane="0" dir="l" state="M"/>
    <connection from=":J1_3" to="E1" fromLane="0" toLane="0" dir="r" state="M"/>
    <connection from=":J1_4" to="-E0" fromLane="0" toLane="0" dir="s" state="M"/>
    <connection from=":J1_5" to="E2" fromLane="0" toLane="0" via=":J1_13_0" dir="l" state="m"/>
    <connection from=":J1_13" to="E2" fromLane="0" toLane="0" dir="l" state="M"/>
    <connection from=":J1_6" to="E3" fromLane="0" toLane="0" dir="r" state="M"/>
    <connection from=":J1_7" to="E1" fromLane="0" toLane="0" dir="s" state="M"/>
    <connection from=":J1_8" to="-E0" fromLane="0" toLane="0" via=":J1_14_0" dir="l" state="m"/>
    <connection from=":J1_14" to="-E0" fromLane="0" toLane="0" dir="l" state="M"/>
    <connection from=":J1_9" to="E2" fromLane="0" toLane="0" dir="r" state="M"/>
    <connection from=":J1_10" to="E3" fromLane="0" toLane="0" dir="s" state="M"/>
    <connection from=":J1_11" to="E1" fromLane="0" toLane="0" via=":J1_15_0" dir="l" state="m"/>
    <connection from=":J1_15" to="E1" fromLane="0" toLane="0" dir="l" state="M"/>
    <connection from=":J4_0" to="-E3" fromLane="0" toLane="0" dir="r" state="M"/>
    <connection from=":J4_1" to="E5" fromLane="0" toLane="0" dir="s" state="M"/>
    <connection from=":J4_2" to="E6" fromLane="0" toLane="0" via=":J4_12_0" dir="l" state="m"/>
    <connection from=":J4_12" to="E6" fromLane="0" toLane="0" dir="l" state="M"/>
    <connection from=":J4_3" to="E4" fromLane="0" toLane="0" dir="r" state="M"/>
    <connection from=":J4_4" to="-E3" fromLane="0" toLane="0" dir="s" state="M"/>
    <connection from=":J4_5" to="E5" fromLane="0" toLane="0" via=":J4_13_0" dir="l" state="m"/>
    <connection from=":J4_13" to="E5" fromLane="0" toLane="0" dir="l" state="M"/>
    <connection from=":J4_6" to="E6" fromLane="0" toLane="0" dir="r" state="M"/>
    <connection from=":J4_7" to="E4" fromLane="0" toLane="0" dir="s" state="M"/>
    <connection from=":J4_8" to="-E3" fromLane="0" toLane="0" via=":J4_14_0" dir="l" state="m"/>
    <connection from=":J4_14" to="-E3" fromLane="0" toLane="0" dir="l" state="M"/>
    <connection from=":J4_9" to="E5" fromLane="0" toLane="0" dir="r" state="M"/>
    <connection from=":J4_10" to="E6" fromLane="0" toLane="0" dir="s" state="M"/>
    <connection from=":J4_11" to="E4" fromLane="0" toLane="0" via=":J4_15_0" dir="l" state="m"/>
    <connection from=":J4_15" to="E4" fromLane="0" toLane="0" dir="l" state="M"/>
    <connection from=":J7_0" to="-E6" fromLane="0" toLane="0" dir="r" state="M"/>
    <connection from=":J7_1" to="E8" fromLane="0" toLane="0" dir="s" state="M"/>
    <connection from=":J7_2" to="E9" fromLane="0" toLane="0" via=":J7_12_0" dir="l" state="m"/>
    <connection from=":J7_12" to="E9" fromLane="0" toLane="0" dir="l" state="M"/>
    <connection from=":J7_3" to="E7" fromLane="0" toLane="0" dir="r" state="M"/>
    <connection from=":J7_4" to="-E6" fromLane="0" toLane="0" dir="s" state="M"/>
    <connection from=":J7_5" to="E8" fromLane="0" toLane="0" via=":J7_13_0" dir="l" state="m"/>
    <connection from=":J7_13" to="E8" fromLane="0" toLane="0" dir="l" state="M"/>
    <connection from=":J7_6" to="E9" fromLane="0" toLane="0" dir="r" state="M"/>
    <connection from=":J7_7" to="E7" fromLane="0" toLane="0" dir="s" state="M"/>
    <connection from=":J7_8" to="-E6" fromLane="0" toLane="0" via=":J7_14_0" dir="l" state="m"/>
    <connection from=":J7_14" to="-E6" fromLane="0" toLane="0" dir="l" state="M"/>
    <connection from=":J7_9" to="E8" fromLane="0" toLane="0" dir="r" state="M"/>
    <connection from=":J7_10" to="E9" fromLane="0" toLane="0" dir="s" state="M"/>
    <connection from=":J7_11" to="E7" fromLane="0" toLane="0" via=":J7_15_0" dir="l" state="m"/>
    <connection from=":J7_15" to="E7" fromLane="0" toLane="0" dir="l" state="M"/>

</net>
