<configuration>
    <input>
        <net-file value="previous_reserch.net.xml"/>
        <route-files value="3intersections_deadlock.rou.xml"/>
    </input>

    <time>
        <begin value="0"/>
        <end value="3600"/>
    </time>

    <report>
        <verbose value="true"/>
        <no-step-log value="true"/>
    </report>
</configuration>
