<additional>
  <tlLogic id="J1" type="static" programID="0" offset="0">
    <phase duration="20" state="GGGrrrrrrrrrr"/>  
    <phase duration="5"  state="yyyrrrrrrrrrr"/>
    <phase duration="20" state="rrrGGGrrrrrrr"/>
    <phase duration="5"  state="rrryyyrrrrrrr"/>
  </tlLogic>

  <tlLogic id="J4" type="static" programID="0" offset="0">
    <phase duration="20" state="GGGrrrrrrrrrr"/>
    <phase duration="5"  state="yyyrrrrrrrrrr"/>
    <phase duration="20" state="rrrGGGrrrrrrr"/>
    <phase duration="5"  state="rrryyyrrrrrrr"/>
  </tlLogic>

  <tlLogic id="J7" type="static" programID="0" offset="0">
    <phase duration="20" state="GGGrrrrrrrrrr"/>
    <phase duration="5"  state="yyyrrrrrrrrrr"/>
    <phase duration="20" state="rrrGGGrrrrrrr"/>
    <phase duration="5"  state="rrryyyrrrrrrr"/>
  </tlLogic>
</additional>
